modelo_bdgd2opendss/sub__5001462/5002409/CargasBT_SA04_2023056072_5002409_------1-----.dss
New "Load.BT_15402411_M1" bus1="15402411.2.4" phases=1 conn=Wye model=2 kv=0.219393102 kw = 0.1662945 pf=0.92 status=variable vmaxpu=1.5 vminpu=0.5 daily="RES-Tipo3_SA"  
New "Load.BT_15402411_M2" bus1="15402411.2.4" phases=1 conn=Wye model=3 kv=0.219393102 kw = 0.1662945 pf=0.92 status=variable vmaxpu=1.5 vminpu=0.5 daily="RES-Tipo3_SA" 
New "Load.BT_12572202_M1" bus1="12572202.2.4" phases=1 conn=Wye model=2 kv=0.219393102 kw = 0.521209 pf=0.92 status=variable vmaxpu=1.5 vminpu=0.5 daily="RES-Tipo5_SA"  
New "Load.BT_12572202_M2" bus1="12572202.2.4" phases=1 conn=Wye model=3 kv=0.219393102 kw = 0.521209 pf=0.92 status=variable vmaxpu=1.5 vminpu=0.5 daily="RES-Tipo5_SA" 

New "Load.BT_14532797_M1" bus1="14532797-340.3.4" phases=1 conn=Wye model=2 kv=0.219393102 kw = 0.0491355 pf=0.92 status=variable vmaxpu=1.5 vminpu=0.5 daily="RES-Tipo8_SA"  
New "Load.BT_14532797_M2" bus1="14532797-340.3.4" phases=1 conn=Wye model=3 kv=0.219393102 kw = 0.0491355 pf=0.92 status=variable vmaxpu=1.5 vminpu=0.5 daily="RES-Tipo8_SA" 
New "Load.BT_11123709_M1" bus1="11123709.1.2.3.4" phases=3 conn=Delta model=2 kv=0.380000000 kw = 0.180235 pf=0.92 status=variable vmaxpu=1.5 vminpu=0.5 daily="RES-Tipo3_SA"  
New "Load.BT_11123709_M2" bus1="11123709.1.2.3.4" phases=3 conn=Delta model=3 kv=0.380000000 kw = 0.180235 pf=0.92 status=variable vmaxpu=1.5 vminpu=0.5 daily="RES-Tipo3_SA" 
New "Load.BT_12425990_M1" bus1="12425990.1.4" phases=1 conn=Wye model=2 kv=0.219393102 kw = 0.052144 pf=0.92 status=variable vmaxpu=1.5 vminpu=0.5 daily="RES-Tipo8_SA"  
New "Load.BT_12425990_M2" bus1="12425990.1.4" phases=1 conn=Wye model=3 kv=0.219393102 kw = 0.052144 pf=0.92 status=variable vmaxpu=1.5 vminpu=0.5 daily="RES-Tipo8_SA" 
New "Load.BT_16577504_M1" bus1="16577504.2.4" phases=1 conn=Wye model=2 kv=0.219393102 kw = 0.044442 pf=0.92 status=variable vmaxpu=1.5 vminpu=0.5 daily="RES-Tipo6_SA"  
New "Load.BT_16577504_M2" bus1="16577504.2.4" phases=1 conn=Wye model=3 kv=0.219393102 kw = 0.044442 pf=0.92 status=variable vmaxpu=1.5 vminpu=0.5 daily="RES-Tipo6_SA" 
New "Load.BT_14246028_M1" bus1="14246028.2.4" phases=1 conn=Wye model=2 kv=0.219393102 kw = 0.0321575 pf=0.92 status=variable vmaxpu=1.5 vminpu=0.5 daily="RES-Tipo9_SA"  
New "Load.BT_14246028_M2" bus1="14246028.2.4" phases=1 conn=Wye model=3 kv=0.219393102 kw = 0.0321575 pf=0.92 status=variable vmaxpu=1.5 vminpu=0.5 daily="RES-Tipo9_SA" 
New "Load.BT_17440555_M1" bus1="17440555.1.4" phases=1 conn=Wye model=2 kv=0.219393102 kw = 0.056155 pf=0.92 status=variable vmaxpu=1.5 vminpu=0.5 daily="RES-Tipo8_SA"  
New "Load.BT_17440555_M2" bus1="17440555.1.4" phases=1 conn=Wye model=3 kv=0.219393102 kw = 0.056155 pf=0.92 status=variable vmaxpu=1.5 vminpu=0.5 daily="RES-Tipo8_SA" 
New "Load.BT_12180725_M1" bus1="12180725.1.4" phases=1 conn=Wye model=2 kv=0.219393102 kw = 0.5593485 pf=0.92 status=variable vmaxpu=1.5 vminpu=0.5 daily="RES-Tipo4_SA"  
New "Load.BT_12180725_M2" bus1="12180725.1.4" phases=1 conn=Wye model=3 kv=0.219393102 kw = 0.5593485 pf=0.92 status=variable vmaxpu=1.5 vminpu=0.5 daily="RES-Tipo4_SA" 
New "Load.BT_16616364_M1" bus1="16616364.3.4" phases=1 conn=Wye model=2 kv=0.219393102 kw = 0.1765665 pf=0.92 status=variable vmaxpu=1.5 vminpu=0.5 daily="RES-Tipo6_SA"  
New "Load.BT_16616364_M2" bus1="16616364.3.4" phases=1 conn=Wye model=3 kv=0.219393102 kw = 0.1765665 pf=0.92 status=variable vmaxpu=1.5 vminpu=0.5 daily="RES-Tipo6_SA" 
New "Load.BT_16510902_M1" bus1="16510902.1.4" phases=1 conn=Wye model=2 kv=0.219393102 kw = 0.0316825 pf=0.92 status=variable vmaxpu=1.5 vminpu=0.5 daily="RES-Tipo7_SA"  
New "Load.BT_16510902_M2" bus1="16510902.1.4" phases=1 conn=Wye model=3 kv=0.219393102 kw = 0.0316825 pf=0.92 status=variable vmaxpu=1.5 vminpu=0.5 daily="RES-Tipo7_SA" 
New "Load.BT_12416599_M1" bus1="12416599.3.4" phases=1 conn=Wye model=2 kv=0.219393102 kw = 0.1153185 pf=0.92 status=variable vmaxpu=1.5 vminpu=0.5 daily="RES-Tipo8_SA"  
New "Load.BT_12416599_M2" bus1="12416599.3.4" phases=1 conn=Wye model=3 kv=0.219393102 kw = 0.1153185 pf=0.92 status=variable vmaxpu=1.5 vminpu=0.5 daily="RES-Tipo8_SA" 
New "Load.BT_10000505208_M1" bus1="10000505208.1.4" phases=1 conn=Wye model=2 kv=0.219393102 kw = 0.1791745 pf=0.92 status=variable vmaxpu=1.5 vminpu=0.5 daily="RES-Tipo2_SA"  
New "Load.BT_10000505208_M2" bus1="10000505208.1.4" phases=1 conn=Wye model=3 kv=0.219393102 kw = 0.1791745 pf=0.92 status=variable vmaxpu=1.5 vminpu=0.5 daily="RES-Tipo2_SA" 
New "Load.BT_16059098_M1" bus1="16059098.3.4" phases=1 conn=Wye model=2 kv=0.219393102 kw = 0.1639465 pf=0.92 status=variable vmaxpu=1.5 vminpu=0.5 daily="RES-Tipo4_SA"  
New "Load.BT_16059098_M2" bus1="16059098.3.4" phases=1 conn=Wye model=3 kv=0.219393102 kw = 0.1639465 pf=0.92 status=variable vmaxpu=1.5 vminpu=0.5 daily="RES-Tipo4_SA" 
New "Load.BT_15606338_M1" bus1="15606338.3.4" phases=1 conn=Wye model=2 kv=0.219393102 kw = 0.16936 pf=0.92 status=variable vmaxpu=1.5 vminpu=0.5 daily="RES-Tipo6_SA"  
New "Load.BT_15606338_M2" bus1="15606338.3.4" phases=1 conn=Wye model=3 kv=0.219393102 kw = 0.16936 pf=0.92 status=variable vmaxpu=1.5 vminpu=0.5 daily="RES-Tipo6_SA" 
New "Load.BT_11246972_M1" bus1="11246972.1.4" phases=1 conn=Wye model=2 kv=0.219393102 kw = 0.231819 pf=0.92 status=variable vmaxpu=1.5 vminpu=0.5 daily="RES-Tipo6_SA"  
New "Load.BT_11246972_M2" bus1="11246972.1.4" phases=1 conn=Wye model=3 kv=0.219393102 kw = 0.231819 pf=0.92 status=variable vmaxpu=1.5 vminpu=0.5 daily="RES-Tipo6_SA" 
New "Load.BT_15377740_M1" bus1="15377740.3.4" phases=1 conn=Wye model=2 kv=0.219393102 kw = 0.2294165 pf=0.92 status=variable vmaxpu=1.5 vminpu=0.5 daily="RES-Tipo6_SA"  
New "Load.BT_15377740_M2" bus1="15377740.3.4" phases=1 conn=Wye model=3 kv=0.219393102 kw = 0.2294165 pf=0.92 status=variable vmaxpu=1.5 vminpu=0.5 daily="RES-Tipo6_SA" 
New "Load.BT_16472305_M1" bus1="16472305.3.4" phases=1 conn=Wye model=2 kv=0.219393102 kw = 0.0 pf=0.92 status=variable vmaxpu=1.5 vminpu=0.5 daily="RES-Tipo7_SA"  
New "Load.BT_16472305_M2" bus1="16472305.3.4" phases=1 conn=Wye model=3 kv=0.219393102 kw = 0.0 pf=0.92 status=variable vmaxpu=1.5 vminpu=0.5 daily="RES-Tipo7_SA" 
New "Load.BT_16602213_M1" bus1="16602213.2.4" phases=1 conn=Wye model=2 kv=0.219393102 kw = 0.0684645 pf=0.92 status=variable vmaxpu=1.5 vminpu=0.5 daily="RES-Tipo6_SA"  
New "Load.BT_16602213_M2" bus1="16602213.2.4" phases=1 conn=Wye model=3 kv=0.219393102 kw = 0.0684645 pf=0.92 status=variable vmaxpu=1.5 vminpu=0.5 daily="RES-Tipo6_SA" 
New "Load.BT_16883664_M1" bus1="16883664.1.4" phases=1 conn=Wye model=2 kv=0.219393102 kw = 0.1639465 pf=0.92 status=variable vmaxpu=1.5 vminpu=0.5 daily="RES-Tipo4_SA"  
New "Load.BT_16883664_M2" bus1="16883664.1.4" phases=1 conn=Wye model=3 kv=0.219393102 kw = 0.1639465 pf=0.92 status=variable vmaxpu=1.5 vminpu=0.5 daily="RES-Tipo4_SA" 
New "Load.BT_15007005_M1" bus1="15007005.1.2.3.4" phases=3 conn=Delta model=2 kv=0.380000000 kw = 0.030083 pf=0.92 status=variable vmaxpu=1.5 vminpu=0.5 daily="RES-Tipo8_SA"  
New "Load.BT_15007005_M2" bus1="15007005.1.2.3.4" phases=3 conn=Delta model=3 kv=0.380000000 kw = 0.030083 pf=0.92 status=variable vmaxpu=1.5 vminpu=0.5 daily="RES-Tipo8_SA" 
New "Load.BT_15205472_M1" bus1="15205472.2.4" phases=1 conn=Wye model=2 kv=0.219393102 kw = 0.4071845 pf=0.92 status=variable vmaxpu=1.5 vminpu=0.5 daily="RES-Tipo6_SA"  
New "Load.BT_15205472_M2" bus1="15205472.2.4" phases=1 conn=Wye model=3 kv=0.219393102 kw = 0.4071845 pf=0.92 status=variable vmaxpu=1.5 vminpu=0.5 daily="RES-Tipo6_SA" 
New "Load.BT_12417063_M1" bus1="12417063.1.4" phases=1 conn=Wye model=2 kv=0.219393102 kw = 0.0020055 pf=0.92 status=variable vmaxpu=1.5 vminpu=0.5 daily="RES-Tipo8_SA"  
New "Load.BT_12417063_M2" bus1="12417063.1.4" phases=1 conn=Wye model=3 kv=0.219393102 kw = 0.0020055 pf=0.92 status=variable vmaxpu=1.5 vminpu=0.5 daily="RES-Tipo8_SA" 
New "Load.BT_12427883_M1" bus1="12427883.1.4" phases=1 conn=Wye model=2 kv=0.219393102 kw = 0.109302 pf=0.92 status=variable vmaxpu=1.5 vminpu=0.5 daily="RES-Tipo8_SA"  
New "Load.BT_12427883_M2" bus1="12427883.1.4" phases=1 conn=Wye model=3 kv=0.219393102 kw = 0.109302 pf=0.92 status=variable vmaxpu=1.5 vminpu=0.5 daily="RES-Tipo8_SA" 
New "Load.BT_12495013_M1" bus1="12495013.2.4" phases=1 conn=Wye model=2 kv=0.219393102 kw = 0.1705395 pf=0.92 status=variable vmaxpu=1.5 vminpu=0.5 daily="RES-Tipo2_SA"  
New "Load.BT_12495013_M2" bus1="12495013.2.4" phases=1 conn=Wye model=3 kv=0.219393102 kw = 0.1705395 pf=0.92 status=variable vmaxpu=1.5 vminpu=0.5 daily="RES-Tipo2_SA" 
New "Load.BT_15791660_M1" bus1="15791660.2.4" phases=1 conn=Wye model=2 kv=0.219393102 kw = 0.1253465 pf=0.92 status=variable vmaxpu=1.5 vminpu=0.5 daily="RES-Tipo8_SA"  
New "Load.BT_15791660_M2" bus1="15791660.2.4" phases=1 conn=Wye model=3 kv=0.219393102 kw = 0.1253465 pf=0.92 status=variable vmaxpu=1.5 vminpu=0.5 daily="RES-Tipo8_SA" 
New "Load.BT_13566880_M1" bus1="13566880.1.4" phases=1 conn=Wye model=2 kv=0.219393102 kw = 0.1115265 pf=0.92 status=variable vmaxpu=1.5 vminpu=0.5 daily="RES-Tipo3_SA"  
New "Load.BT_13566880_M2" bus1="13566880.1.4" phases=1 conn=Wye model=3 kv=0.219393102 kw = 0.1115265 pf=0.92 status=variable vmaxpu=1.5 vminpu=0.5 daily="RES-Tipo3_SA" 
New "Load.BT_12423336_M1" bus1="12423336.1.4" phases=1 conn=Wye model=2 kv=0.219393102 kw = 0.158438 pf=0.92 status=variable vmaxpu=1.5 vminpu=0.5 daily="RES-Tipo8_SA"  
New "Load.BT_12423336_M2" bus1="12423336.1.4" phases=1 conn=Wye model=3 kv=0.219393102 kw = 0.158438 pf=0.92 status=variable vmaxpu=1.5 vminpu=0.5 daily="RES-Tipo8_SA" 
New "Load.BT_10002548800_M1" bus1="10002548800.2.4" phases=1 conn=Wye model=2 kv=0.219393102 kw = 0.0059745 pf=0.92 status=variable vmaxpu=1.5 vminpu=0.5 daily="RES-Tipo3_SA"  
New "Load.BT_10002548800_M2" bus1="10002548800.2.4" phases=1 conn=Wye model=3 kv=0.219393102 kw = 0.0059745 pf=0.92 status=variable vmaxpu=1.5 vminpu=0.5 daily="RES-Tipo3_SA" 
New "Load.BT_15602837_M1" bus1="15602837.1.4" phases=1 conn=Wye model=2 kv=0.219393102 kw = 0.1825725 pf=0.92 status=variable vmaxpu=1.5 vminpu=0.5 daily="RES-Tipo6_SA"  
New "Load.BT_15602837_M2" bus1="15602837.1.4" phases=1 conn=Wye model=3 kv=0.219393102 kw = 0.1825725 pf=0.92 status=variable vmaxpu=1.5 vminpu=0.5 daily="RES-Tipo6_SA" 
New "Load.BT_10019127233_M1" bus1="10019127233.1.4" phases=1 conn=Wye model=2 kv=0.219393102 kw = 0.174857 pf=0.92 status=variable vmaxpu=1.5 vminpu=0.5 daily="RES-Tipo2_SA"  
New "Load.BT_10019127233_M2" bus1="10019127233.1.4" phases=1 conn=Wye model=3 kv=0.219393102 kw = 0.174857 pf=0.92 status=variable vmaxpu=1.5 vminpu=0.5 daily="RES-Tipo2_SA" 
New "Load.BT_12385293_M1" bus1="12385293.1.4" phases=1 conn=Wye model=2 kv=0.219393102 kw = 0.5152525 pf=0.92 status=variable vmaxpu=1.5 vminpu=0.5 daily="RES-Tipo5_SA"  
New "Load.BT_12385293_M2" bus1="12385293.1.4" phases=1 conn=Wye model=3 kv=0.219393102 kw = 0.5152525 pf=0.92 status=variable vmaxpu=1.5 vminpu=0.5 daily="RES-Tipo5_SA" 
New "Load.BT_14393621_M1" bus1="14393621.2.3.4" phases=1 conn=Delta model=2 kv=0.380000000 kw = 0.082999 pf=0.92 status=variable vmaxpu=1.5 vminpu=0.5 daily="COM-Tipo7_SA"  
New "Load.BT_14393621_M2" bus1="14393621.2.3.4" phases=1 conn=Delta model=3 kv=0.380000000 kw = 0.082999 pf=0.92 status=variable vmaxpu=1.5 vminpu=0.5 daily="COM-Tipo7_SA" 
New "Load.BT_12514688_M1" bus1="12514688.1.4" phases=1 conn=Wye model=2 kv=0.219393102 kw = 0.4035645 pf=0.92 status=variable vmaxpu=1.5 vminpu=0.5 daily="RES-Tipo5_SA"  
New "Load.BT_12514688_M2" bus1="12514688.1.4" phases=1 conn=Wye model=3 kv=0.219393102 kw = 0.4035645 pf=0.92 status=variable vmaxpu=1.5 vminpu=0.5 daily="RES-Tipo5_SA" 
New "Load.BT_10001780180_M1" bus1="10001780180.2.4" phases=1 conn=Wye model=2 kv=0.219393102 kw = 0.1349205 pf=0.92 status=variable vmaxpu=1.5 vminpu=0.5 daily="RES-Tipo2_SA"  
New "Load.BT_10001780180_M2" bus1="10001780180.2.4" phases=1 conn=Wye model=3 kv=0.219393102 kw = 0.1349205 pf=0.92 status=variable vmaxpu=1.5 vminpu=0.5 daily="RES-Tipo2_SA" 
New "Load.BT_15059042_M1" bus1="15059042.2.4" phases=1 conn=Wye model=2 kv=0.219393102 kw = 0.3554915 pf=0.92 status=variable vmaxpu=1.5 vminpu=0.5 daily="RES-Tipo3_SA"  
New "Load.BT_15059042_M2" bus1="15059042.2.4" phases=1 conn=Wye model=3 kv=0.219393102 kw = 0.3554915 pf=0.92 status=variable vmaxpu=1.5 vminpu=0.5 daily="RES-Tipo3_SA" 
New "Load.BT_12427822_M1" bus1="12427822-340.1.4" phases=1 conn=Wye model=2 kv=0.219393102 kw = 0.0320885 pf=0.92 status=variable vmaxpu=1.5 vminpu=0.5 daily="RES-Tipo8_SA"  
New "Load.BT_12427822_M2" bus1="12427822-340.1.4" phases=1 conn=Wye model=3 kv=0.219393102 kw = 0.0320885 pf=0.92 status=variable vmaxpu=1.5 vminpu=0.5 daily="RES-Tipo8_SA" 
New "Load.BT_10027614210_M1" bus1="10027614210.2.4" phases=1 conn=Wye model=2 kv=0.219393102 kw = 0.3788565 pf=0.92 status=variable vmaxpu=1.5 vminpu=0.5 daily="RES-Tipo2_SA"  
New "Load.BT_10027614210_M2" bus1="10027614210.2.4" phases=1 conn=Wye model=3 kv=0.219393102 kw = 0.3788565 pf=0.92 status=variable vmaxpu=1.5 vminpu=0.5 daily="RES-Tipo2_SA" 
New "Load.BT_15042613_M1" bus1="15042613.1.4" phases=1 conn=Wye model=2 kv=0.219393102 kw = 0.2041335 pf=0.92 status=variable vmaxpu=1.5 vminpu=0.5 daily="RES-Tipo3_SA"  
New "Load.BT_15042613_M2" bus1="15042613.1.4" phases=1 conn=Wye model=3 kv=0.219393102 kw = 0.2041335 pf=0.92 status=variable vmaxpu=1.5 vminpu=0.5 daily="RES-Tipo3_SA" 
New "Load.BT_15008423_M1" bus1="15008423.1.4" phases=1 conn=Wye model=2 kv=0.219393102 kw = 0.0 pf=0.92 status=variable vmaxpu=1.5 vminpu=0.5 daily="RES-Tipo8_SA"  
New "Load.BT_15008423_M2" bus1="15008423.1.4" phases=1 conn=Wye model=3 kv=0.219393102 kw = 0.0 pf=0.92 status=variable vmaxpu=1.5 vminpu=0.5 daily="RES-Tipo8_SA" 
New "Load.BT_17024171_1_M1" bus1="17024171.2.4" phases=1 conn=Wye model=2 kv=0.219393102 kw = 0.0902495 pf=0.92 status=variable vmaxpu=1.5 vminpu=0.5 daily="RES-Tipo8_SA"  
New "Load.BT_17024171_1_M2" bus1="17024171.2.4" phases=1 conn=Wye model=3 kv=0.219393102 kw = 0.0902495 pf=0.92 status=variable vmaxpu=1.5 vminpu=0.5 daily="RES-Tipo8_SA" 
New "Load.BT_15731716_M1" bus1="15731716.2.4" phases=1 conn=Wye model=2 kv=0.219393102 kw = 0.1945835 pf=0.92 status=variable vmaxpu=1.5 vminpu=0.5 daily="RES-Tipo6_SA"  
New "Load.BT_15731716_M2" bus1="15731716.2.4" phases=1 conn=Wye model=3 kv=0.219393102 kw = 0.1945835 pf=0.92 status=variable vmaxpu=1.5 vminpu=0.5 daily="RES-Tipo6_SA" 
New "Load.BT_10124652_M1" bus1="10124652.2.4" phases=1 conn=Wye model=2 kv=0.219393102 kw = 0.098285 pf=0.92 status=variable vmaxpu=1.5 vminpu=0.5 daily="RES-Tipo5_SA"  
New "Load.BT_10124652_M2" bus1="10124652.2.4" phases=1 conn=Wye model=3 kv=0.219393102 kw = 0.098285 pf=0.92 status=variable vmaxpu=1.5 vminpu=0.5 daily="RES-Tipo5_SA" 
New "Load.BT_12427548_M1" bus1="12427548.1.4" phases=1 conn=Wye model=2 kv=0.219393102 kw = 0.092255 pf=0.92 status=variable vmaxpu=1.5 vminpu=0.5 daily="RES-Tipo8_SA"  
New "Load.BT_12427548_M2" bus1="12427548.1.4" phases=1 conn=Wye model=3 kv=0.219393102 kw = 0.092255 pf=0.92 status=variable vmaxpu=1.5 vminpu=0.5 daily="RES-Tipo8_SA" 
New "Load.BT_15076192_M1" bus1="15076192-342.1.4" phases=1 conn=Wye model=2 kv=0.219393102 kw = 0.1281265 pf=0.92 status=variable vmaxpu=1.5 vminpu=0.5 daily="RES-Tipo4_SA"  
New "Load.BT_15076192_M2" bus1="15076192-342.1.4" phases=1 conn=Wye model=3 kv=0.219393102 kw = 0.1281265 pf=0.92 status=variable vmaxpu=1.5 vminpu=0.5 daily="RES-Tipo4_SA" 
New "Load.BT_10008810700_M1" bus1="10008810700.2.4" phases=1 conn=Wye model=2 kv=0.219393102 kw = 0.0871685 pf=0.92 status=variable vmaxpu=1.5 vminpu=0.5 daily="RES-Tipo1_SA"  
New "Load.BT_10008810700_M2" bus1="10008810700.2.4" phases=1 conn=Wye model=3 kv=0.219393102 kw = 0.0871685 pf=0.92 status=variable vmaxpu=1.5 vminpu=0.5 daily="RES-Tipo1_SA" 
New "Load.BT_10853649_M1" bus1="10853649.1.4" phases=1 conn=Wye model=2 kv=0.219393102 kw = 0.2041335 pf=0.92 status=variable vmaxpu=1.5 vminpu=0.5 daily="RES-Tipo3_SA"  
New "Load.BT_10853649_M2" bus1="10853649.1.4" phases=1 conn=Wye model=3 kv=0.219393102 kw = 0.2041335 pf=0.92 status=variable vmaxpu=1.5 vminpu=0.5 daily="RES-Tipo3_SA" 
New "Load.BT_10881074_M1" bus1="10881074.2.4" phases=1 conn=Wye model=2 kv=0.219393102 kw = 0.196089 pf=0.92 status=variable vmaxpu=1.5 vminpu=0.5 daily="RES-Tipo7_SA"  
New "Load.BT_10881074_M2" bus1="10881074.2.4" phases=1 conn=Wye model=3 kv=0.219393102 kw = 0.196089 pf=0.92 status=variable vmaxpu=1.5 vminpu=0.5 daily="RES-Tipo7_SA" 
New "Load.BT_10014611439_M1" bus1="10014611439.1.4" phases=1 conn=Wye model=2 kv=0.219393102 kw = 0.1810425 pf=0.92 status=variable vmaxpu=1.5 vminpu=0.5 daily="RES-Tipo1_SA"  
New "Load.BT_10014611439_M2" bus1="10014611439.1.4" phases=1 conn=Wye model=3 kv=0.219393102 kw = 0.1810425 pf=0.92 status=variable vmaxpu=1.5 vminpu=0.5 daily="RES-Tipo1_SA" 
New "Load.BT_14003661_M1" bus1="14003661.3.4" phases=1 conn=Wye model=2 kv=0.219393102 kw = 0.202527 pf=0.92 status=variable vmaxpu=1.5 vminpu=0.5 daily="RES-Tipo5_SA"  
New "Load.BT_14003661_M2" bus1="14003661.3.4" phases=1 conn=Wye model=3 kv=0.219393102 kw = 0.202527 pf=0.92 status=variable vmaxpu=1.5 vminpu=0.5 daily="RES-Tipo5_SA" 
New "Load.BT_13257596_M1" bus1="13257596.1.4" phases=1 conn=Wye model=2 kv=0.219393102 kw = 0.249179 pf=0.92 status=variable vmaxpu=1.5 vminpu=0.5 daily="RES-Tipo7_SA"  
New "Load.BT_13257596_M2" bus1="13257596.1.4" phases=1 conn=Wye model=3 kv=0.219393102 kw = 0.249179 pf=0.92 status=variable vmaxpu=1.5 vminpu=0.5 daily="RES-Tipo7_SA" 
New "Load.BT_14588195_M1" bus1="14588195.1.4" phases=1 conn=Wye model=2 kv=0.219393102 kw = 0.231197 pf=0.92 status=variable vmaxpu=1.5 vminpu=0.5 daily="RES-Tipo7_SA"  
New "Load.BT_14588195_M2" bus1="14588195.1.4" phases=1 conn=Wye model=3 kv=0.219393102 kw = 0.231197 pf=0.92 status=variable vmaxpu=1.5 vminpu=0.5 daily="RES-Tipo7_SA" 
New "Load.BT_12112744_M1" bus1="12112744.3.4" phases=1 conn=Wye model=2 kv=0.219393102 kw = 0.097586 pf=0.92 status=variable vmaxpu=1.5 vminpu=0.5 daily="RES-Tipo3_SA"  
New "Load.BT_12112744_M2" bus1="12112744.3.4" phases=1 conn=Wye model=3 kv=0.219393102 kw = 0.097586 pf=0.92 status=variable vmaxpu=1.5 vminpu=0.5 daily="RES-Tipo3_SA" 

New "Load.BT_11501418_M1" bus1="11501418.1.4" phases=1 conn=Wye model=2 kv=0.219393102 kw = 0.214922 pf=0.92 status=variable vmaxpu=1.5 vminpu=0.5 daily="RES-Tipo4_SA"  
New "Load.BT_11501418_M2" bus1="11501418.1.4" phases=1 conn=Wye model=3 kv=0.219393102 kw = 0.214922 pf=0.92 status=variable vmaxpu=1.5 vminpu=0.5 daily="RES-Tipo4_SA" 
New "Load.BT_10019200232_M1" bus1="10019200232.1.4" phases=1 conn=Wye model=2 kv=0.219393102 kw = 0.131682 pf=0.92 status=variable vmaxpu=1.5 vminpu=0.5 daily="RES-Tipo2_SA"  
New "Load.BT_10019200232_M2" bus1="10019200232.1.4" phases=1 conn=Wye model=3 kv=0.219393102 kw = 0.131682 pf=0.92 status=variable vmaxpu=1.5 vminpu=0.5 daily="RES-Tipo2_SA" 
New "Load.BT_17344128_M1" bus1="17344128.3.4" phases=1 conn=Wye model=2 kv=0.219393102 kw = 0.171474 pf=0.92 status=variable vmaxpu=1.5 vminpu=0.5 daily="RES-Tipo8_SA"  
New "Load.BT_17344128_M2" bus1="17344128.3.4" phases=1 conn=Wye model=3 kv=0.219393102 kw = 0.171474 pf=0.92 status=variable vmaxpu=1.5 vminpu=0.5 daily="RES-Tipo8_SA" 
New "Load.BT_10034016366_M1" bus1="10034016366.3.4" phases=1 conn=Wye model=2 kv=0.219393102 kw = 0.049172 pf=0.92 status=variable vmaxpu=1.5 vminpu=0.5 daily="RES-Tipo1_SA"  
New "Load.BT_10034016366_M2" bus1="10034016366.3.4" phases=1 conn=Wye model=3 kv=0.219393102 kw = 0.049172 pf=0.92 status=variable vmaxpu=1.5 vminpu=0.5 daily="RES-Tipo1_SA" 
New "Load.BT_15706874_M1" bus1="15706874.3.4" phases=1 conn=Wye model=2 kv=0.219393102 kw = 0.0916225 pf=0.92 status=variable vmaxpu=1.5 vminpu=0.5 daily="RES-Tipo7_SA"  
New "Load.BT_15706874_M2" bus1="15706874.3.4" phases=1 conn=Wye model=3 kv=0.219393102 kw = 0.0916225 pf=0.92 status=variable vmaxpu=1.5 vminpu=0.5 daily="RES-Tipo7_SA" 
New "Load.BT_16341910_M1" bus1="16341910.2.4" phases=1 conn=Wye model=2 kv=0.219393102 kw = 0.1561475 pf=0.92 status=variable vmaxpu=1.5 vminpu=0.5 daily="RES-Tipo6_SA"  
New "Load.BT_16341910_M2" bus1="16341910.2.4" phases=1 conn=Wye model=3 kv=0.219393102 kw = 0.1561475 pf=0.92 status=variable vmaxpu=1.5 vminpu=0.5 daily="RES-Tipo6_SA" 
New "Load.BT_10831502_M1" bus1="10831502.2.4" phases=1 conn=Wye model=2 kv=0.219393102 kw = 0.722933 pf=0.92 status=variable vmaxpu=1.5 vminpu=0.5 daily="RES-Tipo3_SA"  
New "Load.BT_10831502_M2" bus1="10831502.2.4" phases=1 conn=Wye model=3 kv=0.219393102 kw = 0.722933 pf=0.92 status=variable vmaxpu=1.5 vminpu=0.5 daily="RES-Tipo3_SA" 
New "Load.BT_12510403_1_M1" bus1="12510403.3.4" phases=1 conn=Wye model=2 kv=0.219393102 kw = 0.416967 pf=0.92 status=variable vmaxpu=1.5 vminpu=0.5 daily="RES-Tipo5_SA"  
New "Load.BT_12510403_1_M2" bus1="12510403.3.4" phases=1 conn=Wye model=3 kv=0.219393102 kw = 0.416967 pf=0.92 status=variable vmaxpu=1.5 vminpu=0.5 daily="RES-Tipo5_SA" 
New "Load.BT_14306566_M1" bus1="14306566.2.4" phases=1 conn=Wye model=2 kv=0.219393102 kw = 0.027554 pf=0.92 status=variable vmaxpu=1.5 vminpu=0.5 daily="RES-Tipo4_SA"  
New "Load.BT_14306566_M2" bus1="14306566.2.4" phases=1 conn=Wye model=3 kv=0.219393102 kw = 0.027554 pf=0.92 status=variable vmaxpu=1.5 vminpu=0.5 daily="RES-Tipo4_SA" 
New "Load.BT_10878348_M1" bus1="10878348.2.4" phases=1 conn=Wye model=2 kv=0.219393102 kw = 0.1204885 pf=0.92 status=variable vmaxpu=1.5 vminpu=0.5 daily="RES-Tipo3_SA"  
New "Load.BT_10878348_M2" bus1="10878348.2.4" phases=1 conn=Wye model=3 kv=0.219393102 kw = 0.1204885 pf=0.92 status=variable vmaxpu=1.5 vminpu=0.5 daily="RES-Tipo3_SA" 
New "Load.BT_16970202_M1" bus1="16970202.1.2.3.4" phases=3 conn=Delta model=2 kv=0.380000000 kw = 0.3108595 pf=0.92 status=variable vmaxpu=1.5 vminpu=0.5 daily="RES-Tipo8_SA"  
New "Load.BT_16970202_M2" bus1="16970202.1.2.3.4" phases=3 conn=Delta model=3 kv=0.380000000 kw = 0.3108595 pf=0.92 status=variable vmaxpu=1.5 vminpu=0.5 daily="RES-Tipo8_SA" 
New "Load.BT_14640946_M1" bus1="14640946.2.4" phases=1 conn=Wye model=2 kv=0.219393102 kw = 0.2543165 pf=0.92 status=variable vmaxpu=1.5 vminpu=0.5 daily="RES-Tipo7_SA"  
New "Load.BT_14640946_M2" bus1="14640946.2.4" phases=1 conn=Wye model=3 kv=0.219393102 kw = 0.2543165 pf=0.92 status=variable vmaxpu=1.5 vminpu=0.5 daily="RES-Tipo7_SA" 
New "Load.BT_10007708643_M1" bus1="10007708643.1.4" phases=1 conn=Wye model=2 kv=0.219393102 kw = 0.0675075 pf=0.92 status=variable vmaxpu=1.5 vminpu=0.5 daily="RES-Tipo4_SA"  
New "Load.BT_10007708643_M2" bus1="10007708643.1.4" phases=1 conn=Wye model=3 kv=0.219393102 kw = 0.0675075 pf=0.92 status=variable vmaxpu=1.5 vminpu=0.5 daily="RES-Tipo4_SA" 
New "Load.BT_11652056_1_M1" bus1="11652056.1.2.3.4" phases=3 conn=Delta model=2 kv=0.380000000 kw = 0.0 pf=0.92 status=variable vmaxpu=1.5 vminpu=0.5 daily="RES-Tipo1_SA"  
New "Load.BT_11652056_1_M2" bus1="11652056.1.2.3.4" phases=3 conn=Delta model=3 kv=0.380000000 kw = 0.0 pf=0.92 status=variable vmaxpu=1.5 vminpu=0.5 daily="RES-Tipo1_SA" 
New "Load.BT_10005902299_M1" bus1="10005902299.3.4" phases=1 conn=Wye model=2 kv=0.219393102 kw = 0.033526 pf=0.92 status=variable vmaxpu=1.5 vminpu=0.5 daily="RES-Tipo1_SA"  
New "Load.BT_10005902299_M2" bus1="10005902299.3.4" phases=1 conn=Wye model=3 kv=0.219393102 kw = 0.033526 pf=0.92 status=variable vmaxpu=1.5 vminpu=0.5 daily="RES-Tipo1_SA" 
New "Load.BT_14792023_M1" bus1="14792023.3.4" phases=1 conn=Wye model=2 kv=0.219393102 kw = 0.224621 pf=0.92 status=variable vmaxpu=1.5 vminpu=0.5 daily="RES-Tipo8_SA"  
New "Load.BT_14792023_M2" bus1="14792023.3.4" phases=1 conn=Wye model=3 kv=0.219393102 kw = 0.224621 pf=0.92 status=variable vmaxpu=1.5 vminpu=0.5 daily="RES-Tipo8_SA" 
New "Load.BT_10001441157_M1" bus1="10001441157.3.4" phases=1 conn=Wye model=2 kv=0.219393102 kw = 0.0971425 pf=0.92 status=variable vmaxpu=1.5 vminpu=0.5 daily="RES-Tipo2_SA"  
New "Load.BT_10001441157_M2" bus1="10001441157.3.4" phases=1 conn=Wye model=3 kv=0.219393102 kw = 0.0971425 pf=0.92 status=variable vmaxpu=1.5 vminpu=0.5 daily="RES-Tipo2_SA" 
New "Load.BT_12487958_M1" bus1="12487958.3.4" phases=1 conn=Wye model=2 kv=0.219393102 kw = 0.052233 pf=0.92 status=variable vmaxpu=1.5 vminpu=0.5 daily="RES-Tipo7_SA"  
New "Load.BT_12487958_M2" bus1="12487958.3.4" phases=1 conn=Wye model=3 kv=0.219393102 kw = 0.052233 pf=0.92 status=variable vmaxpu=1.5 vminpu=0.5 daily="RES-Tipo7_SA" 
New "Load.BT_14346060_M1" bus1="14346060.3.4" phases=1 conn=Wye model=2 kv=0.219393102 kw = 0.209411 pf=0.92 status=variable vmaxpu=1.5 vminpu=0.5 daily="RES-Tipo4_SA"  
New "Load.BT_14346060_M2" bus1="14346060.3.4" phases=1 conn=Wye model=3 kv=0.219393102 kw = 0.209411 pf=0.92 status=variable vmaxpu=1.5 vminpu=0.5 daily="RES-Tipo4_SA" 
New "Load.BT_17205608_M1" bus1="17205608.1.4" phases=1 conn=Wye model=2 kv=0.219393102 kw = 0.142143 pf=0.92 status=variable vmaxpu=1.5 vminpu=0.5 daily="RES-Tipo7_SA"  
New "Load.BT_17205608_M2" bus1="17205608.1.4" phases=1 conn=Wye model=3 kv=0.219393102 kw = 0.142143 pf=0.92 status=variable vmaxpu=1.5 vminpu=0.5 daily="RES-Tipo7_SA" 
New "Load.BT_15609492_M1" bus1="15609492.1.2.3.4" phases=3 conn=Delta model=2 kv=0.380000000 kw = 0.0175225 pf=0.92 status=variable vmaxpu=1.5 vminpu=0.5 daily="COM-Tipo5_SA"  
New "Load.BT_15609492_M2" bus1="15609492.1.2.3.4" phases=3 conn=Delta model=3 kv=0.380000000 kw = 0.0175225 pf=0.92 status=variable vmaxpu=1.5 vminpu=0.5 daily="COM-Tipo5_SA" 
New "Load.BT_10850296_M1" bus1="10850296.1.4" phases=1 conn=Wye model=2 kv=0.219393102 kw = 0.15219 pf=0.92 status=variable vmaxpu=1.5 vminpu=0.5 daily="RES-Tipo2_SA"  
New "Load.BT_10850296_M2" bus1="10850296.1.4" phases=1 conn=Wye model=3 kv=0.219393102 kw = 0.15219 pf=0.92 status=variable vmaxpu=1.5 vminpu=0.5 daily="RES-Tipo2_SA" 
New "Load.BT_12516661_M1" bus1="12516661.1.4" phases=1 conn=Wye model=2 kv=0.219393102 kw = 0.2948555 pf=0.92 status=variable vmaxpu=1.5 vminpu=0.5 daily="RES-Tipo5_SA"  
New "Load.BT_12516661_M2" bus1="12516661.1.4" phases=1 conn=Wye model=3 kv=0.219393102 kw = 0.2948555 pf=0.92 status=variable vmaxpu=1.5 vminpu=0.5 daily="RES-Tipo5_SA" 
New "Load.BT_10019688065_M1" bus1="10019688065.3.4" phases=1 conn=Wye model=2 kv=0.219393102 kw = 0.189197 pf=0.92 status=variable vmaxpu=1.5 vminpu=0.5 daily="RES-Tipo3_SA"  
New "Load.BT_10019688065_M2" bus1="10019688065.3.4" phases=1 conn=Wye model=3 kv=0.219393102 kw = 0.189197 pf=0.92 status=variable vmaxpu=1.5 vminpu=0.5 daily="RES-Tipo3_SA" 
New "Load.BT_10035463200_M1" bus1="10035463200.2.3.4" phases=1 conn=Delta model=2 kv=0.380000000 kw = 0.0535965 pf=0.92 status=variable vmaxpu=1.5 vminpu=0.5 daily="RES-Tipo9_SA"  
New "Load.BT_10035463200_M2" bus1="10035463200.2.3.4" phases=1 conn=Delta model=3 kv=0.380000000 kw = 0.0535965 pf=0.92 status=variable vmaxpu=1.5 vminpu=0.5 daily="RES-Tipo9_SA" 
New "Load.BT_16083817_M1" bus1="16083817.3.4" phases=1 conn=Wye model=2 kv=0.219393102 kw = 0.0461275 pf=0.92 status=variable vmaxpu=1.5 vminpu=0.5 daily="RES-Tipo8_SA"  
New "Load.BT_16083817_M2" bus1="16083817.3.4" phases=1 conn=Wye model=3 kv=0.219393102 kw = 0.0461275 pf=0.92 status=variable vmaxpu=1.5 vminpu=0.5 daily="RES-Tipo8_SA" 
New "Load.BT_13525505_M1" bus1="13525505.1.4" phases=1 conn=Wye model=2 kv=0.219393102 kw = 0.223428 pf=0.92 status=variable vmaxpu=1.5 vminpu=0.5 daily="RES-Tipo2_SA"  
New "Load.BT_13525505_M2" bus1="13525505.1.4" phases=1 conn=Wye model=3 kv=0.219393102 kw = 0.223428 pf=0.92 status=variable vmaxpu=1.5 vminpu=0.5 daily="RES-Tipo2_SA" 
New "Load.BT_14973649_M1" bus1="14973649.1.4" phases=1 conn=Wye model=2 kv=0.219393102 kw = 0.265072 pf=0.92 status=variable vmaxpu=1.5 vminpu=0.5 daily="RES-Tipo5_SA"  
New "Load.BT_14973649_M2" bus1="14973649.1.4" phases=1 conn=Wye model=3 kv=0.219393102 kw = 0.265072 pf=0.92 status=variable vmaxpu=1.5 vminpu=0.5 daily="RES-Tipo5_SA" 
New "Load.BT_12488884_M1" bus1="12488884.1.4" phases=1 conn=Wye model=2 kv=0.219393102 kw = 0.245679 pf=0.92 status=variable vmaxpu=1.5 vminpu=0.5 daily="RES-Tipo8_SA"  
New "Load.BT_12488884_M2" bus1="12488884.1.4" phases=1 conn=Wye model=3 kv=0.219393102 kw = 0.245679 pf=0.92 status=variable vmaxpu=1.5 vminpu=0.5 daily="RES-Tipo8_SA" 
New "Load.BT_10831149_M1" bus1="10831149.2.4" phases=1 conn=Wye model=2 kv=0.219393102 kw = 0.157587 pf=0.92 status=variable vmaxpu=1.5 vminpu=0.5 daily="RES-Tipo2_SA"  
New "Load.BT_10831149_M2" bus1="10831149.2.4" phases=1 conn=Wye model=3 kv=0.219393102 kw = 0.157587 pf=0.92 status=variable vmaxpu=1.5 vminpu=0.5 daily="RES-Tipo2_SA" 
New "Load.BT_11574240_M1" bus1="11574240.1.2.3.4" phases=3 conn=Delta model=2 kv=0.380000000 kw = 0.148792 pf=0.92 status=variable vmaxpu=1.5 vminpu=0.5 daily="RES-Tipo4_SA"  
New "Load.BT_11574240_M2" bus1="11574240.1.2.3.4" phases=3 conn=Delta model=3 kv=0.380000000 kw = 0.148792 pf=0.92 status=variable vmaxpu=1.5 vminpu=0.5 daily="RES-Tipo4_SA" 
New "Load.BT_10873703_M1" bus1="10873703.2.4" phases=1 conn=Wye model=2 kv=0.219393102 kw = 0.305703 pf=0.92 status=variable vmaxpu=1.5 vminpu=0.5 daily="RES-Tipo3_SA"  
New "Load.BT_10873703_M2" bus1="10873703.2.4" phases=1 conn=Wye model=3 kv=0.219393102 kw = 0.305703 pf=0.92 status=variable vmaxpu=1.5 vminpu=0.5 daily="RES-Tipo3_SA" 
New "Load.BT_10060704_M1" bus1="10060704.2.4" phases=1 conn=Wye model=2 kv=0.219393102 kw = 0.364846 pf=0.92 status=variable vmaxpu=1.5 vminpu=0.5 daily="RES-Tipo5_SA"  
New "Load.BT_10060704_M2" bus1="10060704.2.4" phases=1 conn=Wye model=3 kv=0.219393102 kw = 0.364846 pf=0.92 status=variable vmaxpu=1.5 vminpu=0.5 daily="RES-Tipo5_SA" 
New "Load.BT_10024226333_M1" bus1="10024226333.1.4" phases=1 conn=Wye model=2 kv=0.219393102 kw = 0.0756715 pf=0.92 status=variable vmaxpu=1.5 vminpu=0.5 daily="RES-Tipo6_SA"  
New "Load.BT_10024226333_M2" bus1="10024226333.1.4" phases=1 conn=Wye model=3 kv=0.219393102 kw = 0.0756715 pf=0.92 status=variable vmaxpu=1.5 vminpu=0.5 daily="RES-Tipo6_SA" 
New "Load.BT_13704874_M1" bus1="13704874.1.2.3.4" phases=3 conn=Delta model=2 kv=0.380000000 kw = 0.033526 pf=0.92 status=variable vmaxpu=1.5 vminpu=0.5 daily="RES-Tipo1_SA"  
New "Load.BT_13704874_M2" bus1="13704874.1.2.3.4" phases=3 conn=Delta model=3 kv=0.380000000 kw = 0.033526 pf=0.92 status=variable vmaxpu=1.5 vminpu=0.5 daily="RES-Tipo1_SA" 
New "Load.BT_10001281737_M1" bus1="10001281737-342.2.4" phases=1 conn=Wye model=2 kv=0.219393102 kw = 0.119577 pf=0.92 status=variable vmaxpu=1.5 vminpu=0.5 daily="RES-Tipo1_SA"  
New "Load.BT_10001281737_M2" bus1="10001281737-342.2.4" phases=1 conn=Wye model=3 kv=0.219393102 kw = 0.119577 pf=0.92 status=variable vmaxpu=1.5 vminpu=0.5 daily="RES-Tipo1_SA" 
New "Load.BT_11522800_M1" bus1="11522800.1.4" phases=1 conn=Wye model=2 kv=0.219393102 kw = 0.416067 pf=0.92 status=variable vmaxpu=1.5 vminpu=0.5 daily="RES-Tipo4_SA"  
New "Load.BT_11522800_M2" bus1="11522800.1.4" phases=1 conn=Wye model=3 kv=0.219393102 kw = 0.416067 pf=0.92 status=variable vmaxpu=1.5 vminpu=0.5 daily="RES-Tipo4_SA" 
New "Load.BT_10021241862_M1" bus1="10021241862.2.4" phases=1 conn=Wye model=2 kv=0.219393102 kw = 0.0323805 pf=0.92 status=variable vmaxpu=1.5 vminpu=0.5 daily="RES-Tipo2_SA"  
New "Load.BT_10021241862_M2" bus1="10021241862.2.4" phases=1 conn=Wye model=3 kv=0.219393102 kw = 0.0323805 pf=0.92 status=variable vmaxpu=1.5 vminpu=0.5 daily="RES-Tipo2_SA" 
New "Load.BT_10032352563_M1" bus1="10032352563.1.4" phases=1 conn=Wye model=2 kv=0.219393102 kw = 0.002978 pf=0.92 status=variable vmaxpu=1.5 vminpu=0.5 daily="RES-Tipo5_SA"  
New "Load.BT_10032352563_M2" bus1="10032352563.1.4" phases=1 conn=Wye model=3 kv=0.219393102 kw = 0.002978 pf=0.92 status=variable vmaxpu=1.5 vminpu=0.5 daily="RES-Tipo5_SA" 
New "Load.BT_12427810_M1" bus1="12427810-340.1.4" phases=1 conn=Wye model=2 kv=0.219393102 kw = 0.123341 pf=0.92 status=variable vmaxpu=1.5 vminpu=0.5 daily="RES-Tipo8_SA"  
New "Load.BT_12427810_M2" bus1="12427810-340.1.4" phases=1 conn=Wye model=3 kv=0.219393102 kw = 0.123341 pf=0.92 status=variable vmaxpu=1.5 vminpu=0.5 daily="RES-Tipo8_SA" 
New "Load.BT_11112815_M1" bus1="11112815.2.4" phases=1 conn=Wye model=2 kv=0.219393102 kw = 0.154345 pf=0.92 status=variable vmaxpu=1.5 vminpu=0.5 daily="RES-Tipo3_SA"  
New "Load.BT_11112815_M2" bus1="11112815.2.4" phases=1 conn=Wye model=3 kv=0.219393102 kw = 0.154345 pf=0.92 status=variable vmaxpu=1.5 vminpu=0.5 daily="RES-Tipo3_SA" 

New "Load.BT_R82360965289706_1_M1" bus1="R82360965289706.3.4" phases=1 conn=Wye model=2 kv=0.219393102 kw = 0.132536 pf=0.92 status=variable vmaxpu=1.5 vminpu=0.5 daily="RES-Tipo5_SA"  
New "Load.BT_R82360965289706_1_M2" bus1="R82360965289706.3.4" phases=1 conn=Wye model=3 kv=0.219393102 kw = 0.132536 pf=0.92 status=variable vmaxpu=1.5 vminpu=0.5 daily="RES-Tipo5_SA" 
New "Load.BT_10006223085_M1" bus1="10006223085.3.4" phases=1 conn=Wye model=2 kv=0.219393102 kw = 0.041331 pf=0.92 status=variable vmaxpu=1.5 vminpu=0.5 daily="RES-Tipo4_SA"  
New "Load.BT_10006223085_M2" bus1="10006223085.3.4" phases=1 conn=Wye model=3 kv=0.219393102 kw = 0.041331 pf=0.92 status=variable vmaxpu=1.5 vminpu=0.5 daily="RES-Tipo4_SA" 
New "Load.BT_10874770_M1" bus1="10874770.1.4" phases=1 conn=Wye model=2 kv=0.219393102 kw = 0.1295235 pf=0.92 status=variable vmaxpu=1.5 vminpu=0.5 daily="RES-Tipo2_SA"  
New "Load.BT_10874770_M2" bus1="10874770.1.4" phases=1 conn=Wye model=3 kv=0.219393102 kw = 0.1295235 pf=0.92 status=variable vmaxpu=1.5 vminpu=0.5 daily="RES-Tipo2_SA" 
New "Load.BT_10848939_M1" bus1="10848939.3.4" phases=1 conn=Wye model=2 kv=0.219393102 kw = 0.1344295 pf=0.92 status=variable vmaxpu=1.5 vminpu=0.5 daily="RES-Tipo3_SA"  
New "Load.BT_10848939_M2" bus1="10848939.3.4" phases=1 conn=Wye model=3 kv=0.219393102 kw = 0.1344295 pf=0.92 status=variable vmaxpu=1.5 vminpu=0.5 daily="RES-Tipo3_SA" 
New "Load.BT_11133752_M1" bus1="11133752.1.4" phases=1 conn=Wye model=2 kv=0.219393102 kw = 0.3604705 pf=0.92 status=variable vmaxpu=1.5 vminpu=0.5 daily="RES-Tipo3_SA"  
New "Load.BT_11133752_M2" bus1="11133752.1.4" phases=1 conn=Wye model=3 kv=0.219393102 kw = 0.3604705 pf=0.92 status=variable vmaxpu=1.5 vminpu=0.5 daily="RES-Tipo3_SA" 

New "Load.BT_12856137_M1" bus1="12856137.3.4" phases=1 conn=Wye model=2 kv=0.219393102 kw = 0.204652 pf=0.92 status=variable vmaxpu=1.5 vminpu=0.5 daily="RES-Tipo7_SA"  
New "Load.BT_12856137_M2" bus1="12856137.3.4" phases=1 conn=Wye model=3 kv=0.219393102 kw = 0.204652 pf=0.92 status=variable vmaxpu=1.5 vminpu=0.5 daily="RES-Tipo7_SA" 
New "Load.BT_14572898_M1" bus1="14572898.1.4" phases=1 conn=Wye model=2 kv=0.219393102 kw = 0.136149 pf=0.92 status=variable vmaxpu=1.5 vminpu=0.5 daily="RES-Tipo7_SA"  
New "Load.BT_14572898_M2" bus1="14572898.1.4" phases=1 conn=Wye model=3 kv=0.219393102 kw = 0.136149 pf=0.92 status=variable vmaxpu=1.5 vminpu=0.5 daily="RES-Tipo7_SA" 
New "Load.BT_15544369_M1" bus1="15544369.1.4" phases=1 conn=Wye model=2 kv=0.219393102 kw = 0.4877075 pf=0.92 status=variable vmaxpu=1.5 vminpu=0.5 daily="RES-Tipo4_SA"  
New "Load.BT_15544369_M2" bus1="15544369.1.4" phases=1 conn=Wye model=3 kv=0.219393102 kw = 0.4877075 pf=0.92 status=variable vmaxpu=1.5 vminpu=0.5 daily="RES-Tipo4_SA" 
New "Load.BT_12853252_M1" bus1="12853252.2.4" phases=1 conn=Wye model=2 kv=0.219393102 kw = 0.120736 pf=0.92 status=variable vmaxpu=1.5 vminpu=0.5 daily="RES-Tipo7_SA"  
New "Load.BT_12853252_M2" bus1="12853252.2.4" phases=1 conn=Wye model=3 kv=0.219393102 kw = 0.120736 pf=0.92 status=variable vmaxpu=1.5 vminpu=0.5 daily="RES-Tipo7_SA" 
New "Load.BT_16750597_M1" bus1="16750597.3.4" phases=1 conn=Wye model=2 kv=0.219393102 kw = 0.049597 pf=0.92 status=variable vmaxpu=1.5 vminpu=0.5 daily="RES-Tipo4_SA"  
New "Load.BT_16750597_M2" bus1="16750597.3.4" phases=1 conn=Wye model=3 kv=0.219393102 kw = 0.049597 pf=0.92 status=variable vmaxpu=1.5 vminpu=0.5 daily="RES-Tipo4_SA" 

New "Load.BT_11706387_M1" bus1="11706387.3.4" phases=1 conn=Wye model=2 kv=0.219393102 kw = 0.2355875 pf=0.92 status=variable vmaxpu=1.5 vminpu=0.5 daily="RES-Tipo4_SA"  
New "Load.BT_11706387_M2" bus1="11706387.3.4" phases=1 conn=Wye model=3 kv=0.219393102 kw = 0.2355875 pf=0.92 status=variable vmaxpu=1.5 vminpu=0.5 daily="RES-Tipo4_SA" 
New "Load.BT_10017795972_M1" bus1="10017795972.1.4" phases=1 conn=Wye model=2 kv=0.219393102 kw = 0.242629 pf=0.92 status=variable vmaxpu=1.5 vminpu=0.5 daily="RES-Tipo6_SA"  
New "Load.BT_10017795972_M2" bus1="10017795972.1.4" phases=1 conn=Wye model=3 kv=0.219393102 kw = 0.242629 pf=0.92 status=variable vmaxpu=1.5 vminpu=0.5 daily="RES-Tipo6_SA" 
New "Load.BT_17324683_1_M1" bus1="17324683.1.4" phases=1 conn=Wye model=2 kv=0.219393102 kw = 0.0676465 pf=0.92 status=variable vmaxpu=1.5 vminpu=0.5 daily="RES-Tipo7_SA"  
New "Load.BT_17324683_1_M2" bus1="17324683.1.4" phases=1 conn=Wye model=3 kv=0.219393102 kw = 0.0676465 pf=0.92 status=variable vmaxpu=1.5 vminpu=0.5 daily="RES-Tipo7_SA" 
New "Load.BT_15672621_M1" bus1="15672621.3.4" phases=1 conn=Wye model=2 kv=0.219393102 kw = 0.1275865 pf=0.92 status=variable vmaxpu=1.5 vminpu=0.5 daily="RES-Tipo7_SA"  
New "Load.BT_15672621_M2" bus1="15672621.3.4" phases=1 conn=Wye model=3 kv=0.219393102 kw = 0.1275865 pf=0.92 status=variable vmaxpu=1.5 vminpu=0.5 daily="RES-Tipo7_SA" 
New "Load.BT_11550820_M1" bus1="11550820.2.4" phases=1 conn=Wye model=2 kv=0.219393102 kw = 0.2107885 pf=0.92 status=variable vmaxpu=1.5 vminpu=0.5 daily="RES-Tipo4_SA"  
New "Load.BT_11550820_M2" bus1="11550820.2.4" phases=1 conn=Wye model=3 kv=0.219393102 kw = 0.2107885 pf=0.92 status=variable vmaxpu=1.5 vminpu=0.5 daily="RES-Tipo4_SA" 
New "Load.BT_10025742530_M1" bus1="10025742530.1.2.3.4" phases=3 conn=Delta model=2 kv=0.380000000 kw = 0.5739525 pf=0.92 status=variable vmaxpu=1.5 vminpu=0.5 daily="COM-Tipo2_SA"  
New "Load.BT_10025742530_M2" bus1="10025742530.1.2.3.4" phases=3 conn=Delta model=3 kv=0.380000000 kw = 0.5739525 pf=0.92 status=variable vmaxpu=1.5 vminpu=0.5 daily="COM-Tipo2_SA" 
New "Load.BT_10853364_M1" bus1="10853364.1.4" phases=1 conn=Wye model=2 kv=0.219393102 kw = 0.0189195 pf=0.92 status=variable vmaxpu=1.5 vminpu=0.5 daily="RES-Tipo3_SA"  
New "Load.BT_10853364_M2" bus1="10853364.1.4" phases=1 conn=Wye model=3 kv=0.219393102 kw = 0.0189195 pf=0.92 status=variable vmaxpu=1.5 vminpu=0.5 daily="RES-Tipo3_SA" 

New "Load.BT_12489153_M1" bus1="12489153.1.4" phases=1 conn=Wye model=2 kv=0.219393102 kw = 0.1464045 pf=0.92 status=variable vmaxpu=1.5 vminpu=0.5 daily="RES-Tipo8_SA"  
New "Load.BT_12489153_M2" bus1="12489153.1.4" phases=1 conn=Wye model=3 kv=0.219393102 kw = 0.1464045 pf=0.92 status=variable vmaxpu=1.5 vminpu=0.5 daily="RES-Tipo8_SA" 
New "Load.BT_10850223_M1" bus1="10850223.2.4" phases=1 conn=Wye model=2 kv=0.219393102 kw = 0.1683805 pf=0.92 status=variable vmaxpu=1.5 vminpu=0.5 daily="RES-Tipo2_SA"  
New "Load.BT_10850223_M2" bus1="10850223.2.4" phases=1 conn=Wye model=3 kv=0.219393102 kw = 0.1683805 pf=0.92 status=variable vmaxpu=1.5 vminpu=0.5 daily="RES-Tipo2_SA" 
New "Load.BT_10018263087_M1" bus1="10018263087.1.4" phases=1 conn=Wye model=2 kv=0.219393102 kw = 0.0938175 pf=0.92 status=variable vmaxpu=1.5 vminpu=0.5 daily="RES-Tipo5_SA"  
New "Load.BT_10018263087_M2" bus1="10018263087.1.4" phases=1 conn=Wye model=3 kv=0.219393102 kw = 0.0938175 pf=0.92 status=variable vmaxpu=1.5 vminpu=0.5 daily="RES-Tipo5_SA" 
New "Load.BT_12693157_M1" bus1="12693157.3.4" phases=1 conn=Wye model=2 kv=0.219393102 kw = 0.3335735 pf=0.92 status=variable vmaxpu=1.5 vminpu=0.5 daily="RES-Tipo5_SA"  
New "Load.BT_12693157_M2" bus1="12693157.3.4" phases=1 conn=Wye model=3 kv=0.219393102 kw = 0.3335735 pf=0.92 status=variable vmaxpu=1.5 vminpu=0.5 daily="RES-Tipo5_SA" 
New "Load.BT_10097648_M1" bus1="10097648.2.4" phases=1 conn=Wye model=2 kv=0.219393102 kw = 0.0 pf=0.92 status=variable vmaxpu=1.5 vminpu=0.5 daily="RES-Tipo5_SA"  
New "Load.BT_10097648_M2" bus1="10097648.2.4" phases=1 conn=Wye model=3 kv=0.219393102 kw = 0.0 pf=0.92 status=variable vmaxpu=1.5 vminpu=0.5 daily="RES-Tipo5_SA" 
New "Load.BT_15614013_1_M1" bus1="15614013.3.4" phases=1 conn=Wye model=2 kv=0.219393102 kw = 0.0325385 pf=0.92 status=variable vmaxpu=1.5 vminpu=0.5 daily="RES-Tipo7_SA"  
New "Load.BT_15614013_1_M2" bus1="15614013.3.4" phases=1 conn=Wye model=3 kv=0.219393102 kw = 0.0325385 pf=0.92 status=variable vmaxpu=1.5 vminpu=0.5 daily="RES-Tipo7_SA" 
New "Load.BT_12426982_M1" bus1="12426982.3.4" phases=1 conn=Wye model=2 kv=0.219393102 kw = 0.1955405 pf=0.92 status=variable vmaxpu=1.5 vminpu=0.5 daily="RES-Tipo8_SA"  
New "Load.BT_12426982_M2" bus1="12426982.3.4" phases=1 conn=Wye model=3 kv=0.219393102 kw = 0.1955405 pf=0.92 status=variable vmaxpu=1.5 vminpu=0.5 daily="RES-Tipo8_SA" 
New "Load.BT_10000543495_M1" bus1="10000543495.2.4" phases=1 conn=Wye model=2 kv=0.219393102 kw = 0.003238 pf=0.92 status=variable vmaxpu=1.5 vminpu=0.5 daily="RES-Tipo2_SA"  
New "Load.BT_10000543495_M2" bus1="10000543495.2.4" phases=1 conn=Wye model=3 kv=0.219393102 kw = 0.003238 pf=0.92 status=variable vmaxpu=1.5 vminpu=0.5 daily="RES-Tipo2_SA" 
New "Load.BT_12489270_M1" bus1="12489270.1.4" phases=1 conn=Wye model=2 kv=0.219393102 kw = 0.189524 pf=0.92 status=variable vmaxpu=1.5 vminpu=0.5 daily="RES-Tipo8_SA"  
New "Load.BT_12489270_M2" bus1="12489270.1.4" phases=1 conn=Wye model=3 kv=0.219393102 kw = 0.189524 pf=0.92 status=variable vmaxpu=1.5 vminpu=0.5 daily="RES-Tipo8_SA" 
New "Load.BT_15862276_M1" bus1="15862276.2.4" phases=1 conn=Wye model=2 kv=0.219393102 kw = 0.1942565 pf=0.92 status=variable vmaxpu=1.5 vminpu=0.5 daily="RES-Tipo4_SA"  
New "Load.BT_15862276_M2" bus1="15862276.2.4" phases=1 conn=Wye model=3 kv=0.219393102 kw = 0.1942565 pf=0.92 status=variable vmaxpu=1.5 vminpu=0.5 daily="RES-Tipo4_SA" 
New "Load.BT_10962013_M1" bus1="10962013.1.4" phases=1 conn=Wye model=2 kv=0.219393102 kw = 0.201145 pf=0.92 status=variable vmaxpu=1.5 vminpu=0.5 daily="RES-Tipo4_SA"  
New "Load.BT_10962013_M2" bus1="10962013.1.4" phases=1 conn=Wye model=3 kv=0.219393102 kw = 0.201145 pf=0.92 status=variable vmaxpu=1.5 vminpu=0.5 daily="RES-Tipo4_SA" 
New "Load.BT_11159261_M1" bus1="11159261.1.4" phases=1 conn=Wye model=2 kv=0.219393102 kw = 0.752806 pf=0.92 status=variable vmaxpu=1.5 vminpu=0.5 daily="RES-Tipo3_SA"  
New "Load.BT_11159261_M2" bus1="11159261.1.4" phases=1 conn=Wye model=3 kv=0.219393102 kw = 0.752806 pf=0.92 status=variable vmaxpu=1.5 vminpu=0.5 daily="RES-Tipo3_SA" 
New "Load.BT_12695051_M1" bus1="12695051.1.4" phases=1 conn=Wye model=2 kv=0.219393102 kw = 0.4735555 pf=0.92 status=variable vmaxpu=1.5 vminpu=0.5 daily="RES-Tipo5_SA"  
New "Load.BT_12695051_M2" bus1="12695051.1.4" phases=1 conn=Wye model=3 kv=0.219393102 kw = 0.4735555 pf=0.92 status=variable vmaxpu=1.5 vminpu=0.5 daily="RES-Tipo5_SA" 
New "Load.BT_10850119_M1" bus1="10850119.1.4" phases=1 conn=Wye model=2 kv=0.219393102 kw = 0.1446345 pf=0.92 status=variable vmaxpu=1.5 vminpu=0.5 daily="RES-Tipo2_SA"  
New "Load.BT_10850119_M2" bus1="10850119.1.4" phases=1 conn=Wye model=3 kv=0.219393102 kw = 0.1446345 pf=0.92 status=variable vmaxpu=1.5 vminpu=0.5 daily="RES-Tipo2_SA" 
New "Load.BT_16390325_M1" bus1="16390325.2.4" phases=1 conn=Wye model=2 kv=0.219393102 kw = 0.3099835 pf=0.92 status=variable vmaxpu=1.5 vminpu=0.5 daily="RES-Tipo4_SA"  
New "Load.BT_16390325_M2" bus1="16390325.2.4" phases=1 conn=Wye model=3 kv=0.219393102 kw = 0.3099835 pf=0.92 status=variable vmaxpu=1.5 vminpu=0.5 daily="RES-Tipo4_SA" 

New "Load.BT_12463681_M1" bus1="12463681.2.4" phases=1 conn=Wye model=2 kv=0.219393102 kw = 0.1423935 pf=0.92 status=variable vmaxpu=1.5 vminpu=0.5 daily="RES-Tipo8_SA"  
New "Load.BT_12463681_M2" bus1="12463681.2.4" phases=1 conn=Wye model=3 kv=0.219393102 kw = 0.1423935 pf=0.92 status=variable vmaxpu=1.5 vminpu=0.5 daily="RES-Tipo8_SA" 
New "Load.BT_12419151_M1" bus1="12419151-340.2.4" phases=1 conn=Wye model=2 kv=0.219393102 kw = 0.207574 pf=0.92 status=variable vmaxpu=1.5 vminpu=0.5 daily="RES-Tipo8_SA"  
New "Load.BT_12419151_M2" bus1="12419151-340.2.4" phases=1 conn=Wye model=3 kv=0.219393102 kw = 0.207574 pf=0.92 status=variable vmaxpu=1.5 vminpu=0.5 daily="RES-Tipo8_SA" 
New "Load.BT_14184837_M1" bus1="14184837.1.2.3.4" phases=3 conn=Delta model=2 kv=0.380000000 kw = 1.1817025 pf=0.92 status=variable vmaxpu=1.5 vminpu=0.5 daily="COM-Tipo7_SA"  
New "Load.BT_14184837_M2" bus1="14184837.1.2.3.4" phases=3 conn=Delta model=3 kv=0.380000000 kw = 1.1817025 pf=0.92 status=variable vmaxpu=1.5 vminpu=0.5 daily="COM-Tipo7_SA" 
New "Load.BT_15785221_M1" bus1="15785221.1.2.3.4" phases=3 conn=Delta model=2 kv=0.380000000 kw = 0.097524 pf=0.92 status=variable vmaxpu=1.5 vminpu=0.5 daily="COM-Tipo7_SA"  
New "Load.BT_15785221_M2" bus1="15785221.1.2.3.4" phases=3 conn=Delta model=3 kv=0.380000000 kw = 0.097524 pf=0.92 status=variable vmaxpu=1.5 vminpu=0.5 daily="COM-Tipo7_SA" 
New "Load.BT_16426368_M1" bus1="16426368.1.2.3.4" phases=3 conn=Delta model=2 kv=0.380000000 kw = 0.021407 pf=0.92 status=variable vmaxpu=1.5 vminpu=0.5 daily="RES-Tipo7_SA"  
New "Load.BT_16426368_M2" bus1="16426368.1.2.3.4" phases=3 conn=Delta model=3 kv=0.380000000 kw = 0.021407 pf=0.92 status=variable vmaxpu=1.5 vminpu=0.5 daily="RES-Tipo7_SA" 
New "Load.BT_12688990_M1" bus1="12688990.2.4" phases=1 conn=Wye model=2 kv=0.219393102 kw = 0.434837 pf=0.92 status=variable vmaxpu=1.5 vminpu=0.5 daily="RES-Tipo5_SA"  
New "Load.BT_12688990_M2" bus1="12688990.2.4" phases=1 conn=Wye model=3 kv=0.219393102 kw = 0.434837 pf=0.92 status=variable vmaxpu=1.5 vminpu=0.5 daily="RES-Tipo5_SA" 
New "Load.BT_15565531_M1" bus1="15565531.2.4" phases=1 conn=Wye model=2 kv=0.219393102 kw = 0.050975 pf=0.92 status=variable vmaxpu=1.5 vminpu=0.5 daily="RES-Tipo4_SA"  
New "Load.BT_15565531_M2" bus1="15565531.2.4" phases=1 conn=Wye model=3 kv=0.219393102 kw = 0.050975 pf=0.92 status=variable vmaxpu=1.5 vminpu=0.5 daily="RES-Tipo4_SA" 
New "Load.BT_10022689913_M1" bus1="10022689913.1.4" phases=1 conn=Wye model=2 kv=0.219393102 kw = 0.1295235 pf=0.92 status=variable vmaxpu=1.5 vminpu=0.5 daily="RES-Tipo2_SA"  
New "Load.BT_10022689913_M2" bus1="10022689913.1.4" phases=1 conn=Wye model=3 kv=0.219393102 kw = 0.1295235 pf=0.92 status=variable vmaxpu=1.5 vminpu=0.5 daily="RES-Tipo2_SA" 
New "Load.BT_12538930_M1" bus1="12538930-341.1.4" phases=1 conn=Wye model=2 kv=0.219393102 kw = 0.460153 pf=0.92 status=variable vmaxpu=1.5 vminpu=0.5 daily="RES-Tipo5_SA"  
New "Load.BT_12538930_M2" bus1="12538930-341.1.4" phases=1 conn=Wye model=3 kv=0.219393102 kw = 0.460153 pf=0.92 status=variable vmaxpu=1.5 vminpu=0.5 daily="RES-Tipo5_SA" 
New "Load.BT_15608402_M1" bus1="15608402.1.2.3.4" phases=3 conn=Delta model=2 kv=0.380000000 kw = 0.1138855 pf=0.92 status=variable vmaxpu=1.5 vminpu=0.5 daily="RES-Tipo7_SA"  
New "Load.BT_15608402_M2" bus1="15608402.1.2.3.4" phases=3 conn=Delta model=3 kv=0.380000000 kw = 0.1138855 pf=0.92 status=variable vmaxpu=1.5 vminpu=0.5 daily="RES-Tipo7_SA" 
New "Load.BT_12480587_M1" bus1="12480587.2.4" phases=1 conn=Wye model=2 kv=0.219393102 kw = 0.0721995 pf=0.92 status=variable vmaxpu=1.5 vminpu=0.5 daily="RES-Tipo8_SA"  
New "Load.BT_12480587_M2" bus1="12480587.2.4" phases=1 conn=Wye model=3 kv=0.219393102 kw = 0.0721995 pf=0.92 status=variable vmaxpu=1.5 vminpu=0.5 daily="RES-Tipo8_SA" 
New "Load.BT_10018737666_M1" bus1="10018737666.1.2.3.4" phases=3 conn=Delta model=2 kv=0.380000000 kw = 5.8952025 pf=0.92 status=variable vmaxpu=1.5 vminpu=0.5 daily="RES-Tipo4_SA"  
New "Load.BT_10018737666_M2" bus1="10018737666.1.2.3.4" phases=3 conn=Delta model=3 kv=0.380000000 kw = 5.8952025 pf=0.92 status=variable vmaxpu=1.5 vminpu=0.5 daily="RES-Tipo4_SA" 
New "Load.BT_12573917_M1" bus1="12573917-341.3.4" phases=1 conn=Wye model=2 kv=0.219393102 kw = 0.2427345 pf=0.92 status=variable vmaxpu=1.5 vminpu=0.5 daily="RES-Tipo5_SA"  
New "Load.BT_12573917_M2" bus1="12573917-341.3.4" phases=1 conn=Wye model=3 kv=0.219393102 kw = 0.2427345 pf=0.92 status=variable vmaxpu=1.5 vminpu=0.5 daily="RES-Tipo5_SA" 
New "Load.BT_12488963_M1" bus1="12488963.3.4" phases=1 conn=Wye model=2 kv=0.219393102 kw = 0.097269 pf=0.92 status=variable vmaxpu=1.5 vminpu=0.5 daily="RES-Tipo8_SA"  
New "Load.BT_12488963_M2" bus1="12488963.3.4" phases=1 conn=Wye model=3 kv=0.219393102 kw = 0.097269 pf=0.92 status=variable vmaxpu=1.5 vminpu=0.5 daily="RES-Tipo8_SA" 
New "Load.BT_17460323_M1" bus1="17460323.3.4" phases=1 conn=Wye model=2 kv=0.219393102 kw = 0.144422 pf=0.92 status=variable vmaxpu=1.5 vminpu=0.5 daily="COM-Tipo4_SA"  
New "Load.BT_17460323_M2" bus1="17460323.3.4" phases=1 conn=Wye model=3 kv=0.219393102 kw = 0.144422 pf=0.92 status=variable vmaxpu=1.5 vminpu=0.5 daily="COM-Tipo4_SA" 
New "Load.BT_13333689_M1" bus1="13333689.3.4" phases=1 conn=Wye model=2 kv=0.219393102 kw = 0.5788485 pf=0.92 status=variable vmaxpu=1.5 vminpu=0.5 daily="RES-Tipo7_SA"  
New "Load.BT_13333689_M2" bus1="13333689.3.4" phases=1 conn=Wye model=3 kv=0.219393102 kw = 0.5788485 pf=0.92 status=variable vmaxpu=1.5 vminpu=0.5 daily="RES-Tipo7_SA" 
New "Load.BT_12640943_M1" bus1="12640943.3.4" phases=1 conn=Wye model=2 kv=0.219393102 kw = 0.2442235 pf=0.92 status=variable vmaxpu=1.5 vminpu=0.5 daily="RES-Tipo5_SA"  
New "Load.BT_12640943_M2" bus1="12640943.3.4" phases=1 conn=Wye model=3 kv=0.219393102 kw = 0.2442235 pf=0.92 status=variable vmaxpu=1.5 vminpu=0.5 daily="RES-Tipo5_SA" 
New "Load.BT_12413720_M1" bus1="12413720.1.4" phases=1 conn=Wye model=2 kv=0.219393102 kw = 0.3008315 pf=0.92 status=variable vmaxpu=1.5 vminpu=0.5 daily="RES-Tipo8_SA"  
New "Load.BT_12413720_M2" bus1="12413720.1.4" phases=1 conn=Wye model=3 kv=0.219393102 kw = 0.3008315 pf=0.92 status=variable vmaxpu=1.5 vminpu=0.5 daily="RES-Tipo8_SA" 
New "Load.BT_16966867_M1" bus1="16966867.1.4" phases=1 conn=Wye model=2 kv=0.219393102 kw = 0.194538 pf=0.92 status=variable vmaxpu=1.5 vminpu=0.5 daily="RES-Tipo8_SA"  
New "Load.BT_16966867_M2" bus1="16966867.1.4" phases=1 conn=Wye model=3 kv=0.219393102 kw = 0.194538 pf=0.92 status=variable vmaxpu=1.5 vminpu=0.5 daily="RES-Tipo8_SA" 
New "Load.BT_14589394_M1" bus1="14589394.3.4" phases=1 conn=Wye model=2 kv=0.219393102 kw = 0.138718 pf=0.92 status=variable vmaxpu=1.5 vminpu=0.5 daily="RES-Tipo7_SA"  
New "Load.BT_14589394_M2" bus1="14589394.3.4" phases=1 conn=Wye model=3 kv=0.219393102 kw = 0.138718 pf=0.92 status=variable vmaxpu=1.5 vminpu=0.5 daily="RES-Tipo7_SA" 
New "Load.BT_11652457_M1" bus1="11652457.1.4" phases=1 conn=Wye model=2 kv=0.219393102 kw = 0.1318675 pf=0.92 status=variable vmaxpu=1.5 vminpu=0.5 daily="RES-Tipo7_SA"  
New "Load.BT_11652457_M2" bus1="11652457.1.4" phases=1 conn=Wye model=3 kv=0.219393102 kw = 0.1318675 pf=0.92 status=variable vmaxpu=1.5 vminpu=0.5 daily="RES-Tipo7_SA" 
New "Load.BT_10012774012_M1" bus1="10012774012.2.4" phases=1 conn=Wye model=2 kv=0.219393102 kw = 0.257968 pf=0.92 status=variable vmaxpu=1.5 vminpu=0.5 daily="RES-Tipo2_SA"  
New "Load.BT_10012774012_M2" bus1="10012774012.2.4" phases=1 conn=Wye model=3 kv=0.219393102 kw = 0.257968 pf=0.92 status=variable vmaxpu=1.5 vminpu=0.5 daily="RES-Tipo2_SA" 
New "Load.BT_12869806_M1" bus1="12869806.2.4" phases=1 conn=Wye model=2 kv=0.219393102 kw = 0.210582 pf=0.92 status=variable vmaxpu=1.5 vminpu=0.5 daily="RES-Tipo8_SA"  
New "Load.BT_12869806_M2" bus1="12869806.2.4" phases=1 conn=Wye model=3 kv=0.219393102 kw = 0.210582 pf=0.92 status=variable vmaxpu=1.5 vminpu=0.5 daily="RES-Tipo8_SA" 
New "Load.BT_15325829_M1" bus1="15325829.2.4" phases=1 conn=Wye model=2 kv=0.219393102 kw = 0.217405 pf=0.92 status=variable vmaxpu=1.5 vminpu=0.5 daily="RES-Tipo6_SA"  
New "Load.BT_15325829_M2" bus1="15325829.2.4" phases=1 conn=Wye model=3 kv=0.219393102 kw = 0.217405 pf=0.92 status=variable vmaxpu=1.5 vminpu=0.5 daily="RES-Tipo6_SA" 
New "Load.BT_10029435755_M1" bus1="10029435755.1.4" phases=1 conn=Wye model=2 kv=0.219393102 kw = 0.188521 pf=0.92 status=variable vmaxpu=1.5 vminpu=0.5 daily="RES-Tipo8_SA"  
New "Load.BT_10029435755_M2" bus1="10029435755.1.4" phases=1 conn=Wye model=3 kv=0.219393102 kw = 0.188521 pf=0.92 status=variable vmaxpu=1.5 vminpu=0.5 daily="RES-Tipo8_SA" 
New "Load.BT_13690577_M1" bus1="13690577.2.4" phases=1 conn=Wye model=2 kv=0.219393102 kw = 0.009419 pf=0.92 status=variable vmaxpu=1.5 vminpu=0.5 daily="RES-Tipo7_SA"  
New "Load.BT_13690577_M2" bus1="13690577.2.4" phases=1 conn=Wye model=3 kv=0.219393102 kw = 0.009419 pf=0.92 status=variable vmaxpu=1.5 vminpu=0.5 daily="RES-Tipo7_SA" 
New "Load.BT_10020369342_M1" bus1="10020369342.1.4" phases=1 conn=Wye model=2 kv=0.219393102 kw = 0.3285585 pf=0.92 status=variable vmaxpu=1.5 vminpu=0.5 daily="RES-Tipo1_SA"  
New "Load.BT_10020369342_M2" bus1="10020369342.1.4" phases=1 conn=Wye model=3 kv=0.219393102 kw = 0.3285585 pf=0.92 status=variable vmaxpu=1.5 vminpu=0.5 daily="RES-Tipo1_SA" 
New "Load.BT_12489670_M1" bus1="12489670.1.4" phases=1 conn=Wye model=2 kv=0.219393102 kw = 0.2446765 pf=0.92 status=variable vmaxpu=1.5 vminpu=0.5 daily="RES-Tipo8_SA"  
New "Load.BT_12489670_M2" bus1="12489670.1.4" phases=1 conn=Wye model=3 kv=0.219393102 kw = 0.2446765 pf=0.92 status=variable vmaxpu=1.5 vminpu=0.5 daily="RES-Tipo8_SA" 
New "Load.BT_14002360_M1" bus1="14002360.1.2.3.4" phases=3 conn=Delta model=2 kv=0.380000000 kw = 0.0253155 pf=0.92 status=variable vmaxpu=1.5 vminpu=0.5 daily="RES-Tipo5_SA"  
New "Load.BT_14002360_M2" bus1="14002360.1.2.3.4" phases=3 conn=Delta model=3 kv=0.380000000 kw = 0.0253155 pf=0.92 status=variable vmaxpu=1.5 vminpu=0.5 daily="RES-Tipo5_SA" 
New "Load.BT_15597362_M1" bus1="15597362.1.4" phases=1 conn=Wye model=2 kv=0.219393102 kw = 0.003425 pf=0.92 status=variable vmaxpu=1.5 vminpu=0.5 daily="RES-Tipo7_SA"  
New "Load.BT_15597362_M2" bus1="15597362.1.4" phases=1 conn=Wye model=3 kv=0.219393102 kw = 0.003425 pf=0.92 status=variable vmaxpu=1.5 vminpu=0.5 daily="RES-Tipo7_SA" 
New "Load.BT_10024962226_M1" bus1="10024962226.2.4" phases=1 conn=Wye model=2 kv=0.219393102 kw = 0.3313645 pf=0.92 status=variable vmaxpu=1.5 vminpu=0.5 daily="RES-Tipo2_SA"  
New "Load.BT_10024962226_M2" bus1="10024962226.2.4" phases=1 conn=Wye model=3 kv=0.219393102 kw = 0.3313645 pf=0.92 status=variable vmaxpu=1.5 vminpu=0.5 daily="RES-Tipo2_SA" 
New "Load.BT_13667749_M1" bus1="13667749.3.4" phases=1 conn=Wye model=2 kv=0.219393102 kw = 0.0359635 pf=0.92 status=variable vmaxpu=1.5 vminpu=0.5 daily="RES-Tipo7_SA"  
New "Load.BT_13667749_M2" bus1="13667749.3.4" phases=1 conn=Wye model=3 kv=0.219393102 kw = 0.0359635 pf=0.92 status=variable vmaxpu=1.5 vminpu=0.5 daily="RES-Tipo7_SA" 
New "Load.BT_13525475_M1" bus1="13525475.2.4" phases=1 conn=Wye model=2 kv=0.219393102 kw = 0.113333 pf=0.92 status=variable vmaxpu=1.5 vminpu=0.5 daily="RES-Tipo2_SA"  
New "Load.BT_13525475_M2" bus1="13525475.2.4" phases=1 conn=Wye model=3 kv=0.219393102 kw = 0.113333 pf=0.92 status=variable vmaxpu=1.5 vminpu=0.5 daily="RES-Tipo2_SA" 
New "Load.BT_16166334_M1" bus1="16166334.1.2.3.4" phases=3 conn=Delta model=2 kv=0.380000000 kw = 0.3413345 pf=0.92 status=variable vmaxpu=1.5 vminpu=0.5 daily="COM-Tipo7_SA"  
New "Load.BT_16166334_M2" bus1="16166334.1.2.3.4" phases=3 conn=Delta model=3 kv=0.380000000 kw = 0.3413345 pf=0.92 status=variable vmaxpu=1.5 vminpu=0.5 daily="COM-Tipo7_SA" 
New "Load.BT_17014050_M1" bus1="17014050.3.4" phases=1 conn=Wye model=2 kv=0.219393102 kw = 0.035097 pf=0.92 status=variable vmaxpu=1.5 vminpu=0.5 daily="RES-Tipo8_SA"  
New "Load.BT_17014050_M2" bus1="17014050.3.4" phases=1 conn=Wye model=3 kv=0.219393102 kw = 0.035097 pf=0.92 status=variable vmaxpu=1.5 vminpu=0.5 daily="RES-Tipo8_SA" 
New "Load.BT_13855414_M1" bus1="13855414.2.4" phases=1 conn=Wye model=2 kv=0.219393102 kw = 0.222349 pf=0.92 status=variable vmaxpu=1.5 vminpu=0.5 daily="RES-Tipo2_SA"  
New "Load.BT_13855414_M2" bus1="13855414.2.4" phases=1 conn=Wye model=3 kv=0.219393102 kw = 0.222349 pf=0.92 status=variable vmaxpu=1.5 vminpu=0.5 daily="RES-Tipo2_SA" 
New "Load.BT_10036373280_M1" bus1="10036373280.3.4" phases=1 conn=Wye model=2 kv=0.219393102 kw = 0.0852805 pf=0.92 status=variable vmaxpu=1.5 vminpu=0.5 daily="RES-Tipo6_SA"  
New "Load.BT_10036373280_M2" bus1="10036373280.3.4" phases=1 conn=Wye model=3 kv=0.219393102 kw = 0.0852805 pf=0.92 status=variable vmaxpu=1.5 vminpu=0.5 daily="RES-Tipo6_SA" 
New "Load.BT_12427354_M1" bus1="12427354.3.4" phases=1 conn=Wye model=2 kv=0.219393102 kw = 0.2125875 pf=0.92 status=variable vmaxpu=1.5 vminpu=0.5 daily="RES-Tipo8_SA"  
New "Load.BT_12427354_M2" bus1="12427354.3.4" phases=1 conn=Wye model=3 kv=0.219393102 kw = 0.2125875 pf=0.92 status=variable vmaxpu=1.5 vminpu=0.5 daily="RES-Tipo8_SA" 
New "Load.BT_16214080_M1" bus1="16214080.3.4" phases=1 conn=Wye model=2 kv=0.219393102 kw = 0.0048045 pf=0.92 status=variable vmaxpu=1.5 vminpu=0.5 daily="RES-Tipo6_SA"  
New "Load.BT_16214080_M2" bus1="16214080.3.4" phases=1 conn=Wye model=3 kv=0.219393102 kw = 0.0048045 pf=0.92 status=variable vmaxpu=1.5 vminpu=0.5 daily="RES-Tipo6_SA" 
New "Load.BT_10844983_M1" bus1="10844983.1.4" phases=1 conn=Wye model=2 kv=0.219393102 kw = 0.1423955 pf=0.92 status=variable vmaxpu=1.5 vminpu=0.5 daily="RES-Tipo3_SA"  
New "Load.BT_10844983_M2" bus1="10844983.1.4" phases=1 conn=Wye model=3 kv=0.219393102 kw = 0.1423955 pf=0.92 status=variable vmaxpu=1.5 vminpu=0.5 daily="RES-Tipo3_SA" 
New "Load.BT_12474149_M1" bus1="12474149.1.4" phases=1 conn=Wye model=2 kv=0.219393102 kw = 0.3188815 pf=0.92 status=variable vmaxpu=1.5 vminpu=0.5 daily="RES-Tipo8_SA"  
New "Load.BT_12474149_M2" bus1="12474149.1.4" phases=1 conn=Wye model=3 kv=0.219393102 kw = 0.3188815 pf=0.92 status=variable vmaxpu=1.5 vminpu=0.5 daily="RES-Tipo8_SA" 
New "Load.BT_12486530_M1" bus1="12486530.1.4" phases=1 conn=Wye model=2 kv=0.219393102 kw = 0.185513 pf=0.92 status=variable vmaxpu=1.5 vminpu=0.5 daily="RES-Tipo8_SA"  
New "Load.BT_12486530_M2" bus1="12486530.1.4" phases=1 conn=Wye model=3 kv=0.219393102 kw = 0.185513 pf=0.92 status=variable vmaxpu=1.5 vminpu=0.5 daily="RES-Tipo8_SA" 
New "Load.BT_12483308_M1" bus1="12483308.3.4" phases=1 conn=Wye model=2 kv=0.219393102 kw = 0.1283545 pf=0.92 status=variable vmaxpu=1.5 vminpu=0.5 daily="RES-Tipo8_SA"  
New "Load.BT_12483308_M2" bus1="12483308.3.4" phases=1 conn=Wye model=3 kv=0.219393102 kw = 0.1283545 pf=0.92 status=variable vmaxpu=1.5 vminpu=0.5 daily="RES-Tipo8_SA" 
New "Load.BT_10001903550_M1" bus1="10001903550.3.4" phases=1 conn=Wye model=2 kv=0.219393102 kw = 0.157587 pf=0.92 status=variable vmaxpu=1.5 vminpu=0.5 daily="RES-Tipo2_SA"  
New "Load.BT_10001903550_M2" bus1="10001903550.3.4" phases=1 conn=Wye model=3 kv=0.219393102 kw = 0.157587 pf=0.92 status=variable vmaxpu=1.5 vminpu=0.5 daily="RES-Tipo2_SA" 
New "Load.BT_10024611660_M1" bus1="10024611660.1.4" phases=1 conn=Wye model=2 kv=0.219393102 kw = 0.293077 pf=0.92 status=variable vmaxpu=1.5 vminpu=0.5 daily="RES-Tipo6_SA"  
New "Load.BT_10024611660_M2" bus1="10024611660.1.4" phases=1 conn=Wye model=3 kv=0.219393102 kw = 0.293077 pf=0.92 status=variable vmaxpu=1.5 vminpu=0.5 daily="RES-Tipo6_SA" 
New "Load.BT_15532781_M1" bus1="15532781.1.4" phases=1 conn=Wye model=2 kv=0.219393102 kw = 0.3513145 pf=0.92 status=variable vmaxpu=1.5 vminpu=0.5 daily="RES-Tipo4_SA"  
New "Load.BT_15532781_M2" bus1="15532781.1.4" phases=1 conn=Wye model=3 kv=0.219393102 kw = 0.3513145 pf=0.92 status=variable vmaxpu=1.5 vminpu=0.5 daily="RES-Tipo4_SA" 
New "Load.BT_10962670_M1" bus1="10962670.1.4" phases=1 conn=Wye model=2 kv=0.219393102 kw = 0.1928785 pf=0.92 status=variable vmaxpu=1.5 vminpu=0.5 daily="RES-Tipo4_SA"  
New "Load.BT_10962670_M2" bus1="10962670.1.4" phases=1 conn=Wye model=3 kv=0.219393102 kw = 0.1928785 pf=0.92 status=variable vmaxpu=1.5 vminpu=0.5 daily="RES-Tipo4_SA" 
New "Load.BT_11742045_M1" bus1="11742045.3.4" phases=1 conn=Wye model=2 kv=0.219393102 kw = 0.301081 pf=0.92 status=variable vmaxpu=1.5 vminpu=0.5 daily="COM-Tipo3_SA"  
New "Load.BT_11742045_M2" bus1="11742045.3.4" phases=1 conn=Wye model=3 kv=0.219393102 kw = 0.301081 pf=0.92 status=variable vmaxpu=1.5 vminpu=0.5 daily="COM-Tipo3_SA" 
...